G6P
  -OEChem-01052415143D

 29 29  0     1  0  0  0  0  0999 V2000
   44.8740   11.4210   14.0400 C   0  0  1  0  0  0  0  0  0  0  0  0
   43.5830   12.2200   13.7270 C   0  0  1  0  0  0  0  0  0  0  0  0
   43.4700   12.3870   12.2000 C   0  0  2  0  0  0  0  0  0  0  0  0
   44.7100   13.1490   11.7070 C   0  0  1  0  0  0  0  0  0  0  0  0
   45.9740   12.3270   12.0820 C   0  0  1  0  0  0  0  0  0  0  0  0
   47.2230   13.1000   11.6210 C   0  0  0  0  0  0  0  0  0  0  0  0
   44.8140   10.1050   13.4610 O   0  0  0  0  0  0  0  0  0  0  0  0
   42.4110   11.4930   14.2290 O   0  0  0  0  0  0  0  0  0  0  0  0
   42.2870   13.1290   11.8800 O   0  0  0  0  0  0  0  0  0  0  0  0
   44.6340   13.3090   10.2740 O   0  0  0  0  0  0  0  0  0  0  0  0
   46.0410   12.1480   13.5300 O   0  0  0  0  0  0  0  0  0  0  0  0
   48.4150   12.3780   11.9540 O   0  0  0  0  0  0  0  0  0  0  0  0
   49.6970   13.2530   11.4760 P   0  0  0  0  0  0  0  0  0  0  0  0
   49.7100   14.5620   12.1750 O   0  0  0  0  0  0  0  0  0  0  0  0
   51.0450   12.4480   11.8290 O   0  0  0  0  0  0  0  0  0  0  0  0
   49.6320   13.5130    9.8880 O   0  0  0  0  0  0  0  0  0  0  0  0
   44.9640   11.3100   15.1310 H   0  0  0  0  0  0  0  0  0  0  0  0
   43.6260   13.2050   14.2150 H   0  0  0  0  0  0  0  0  0  0  0  0
   43.4110   11.4020   11.7140 H   0  0  0  0  0  0  0  0  0  0  0  0
   44.7600   14.1430   12.1750 H   0  0  0  0  0  0  0  0  0  0  0  0
   45.9270   11.3420   11.5940 H   0  0  0  0  0  0  0  0  0  0  0  0
   47.2440   14.0800   12.1210 H   0  0  0  0  0  0  0  0  0  0  0  0
   47.1790   13.2280   10.5290 H   0  0  0  0  0  0  0  0  0  0  0  0
   44.8010   10.1760   12.5140 H   0  0  0  0  0  0  0  0  0  0  0  0
   42.5100   11.3360   15.1610 H   0  0  0  0  0  0  0  0  0  0  0  0
   41.7910   13.2930   12.6740 H   0  0  0  0  0  0  0  0  0  0  0  0
   44.6170   14.2340   10.0590 H   0  0  0  0  0  0  0  0  0  0  0  0
   49.7130   14.4200   13.1140 H   0  0  0  0  0  0  0  0  0  0  0  0
   51.5370   12.2890   11.0320 H   0  0  0  0  0  0  0  0  0  0  0  0
  1  2  1  0  0  0  0
  1  7  1  0  0  0  0
  1 11  1  0  0  0  0
  1 17  1  0  0  0  0
  2  3  1  0  0  0  0
  2  8  1  0  0  0  0
  2 18  1  0  0  0  0
  3  4  1  0  0  0  0
  3  9  1  0  0  0  0
  3 19  1  0  0  0  0
  4  5  1  0  0  0  0
  4 10  1  0  0  0  0
  4 20  1  0  0  0  0
  5  6  1  0  0  0  0
  5 11  1  0  0  0  0
  5 21  1  0  0  0  0
  6 12  1  0  0  0  0
  6 22  1  0  0  0  0
  6 23  1  0  0  0  0
  7 24  1  0  0  0  0
  8 25  1  0  0  0  0
  9 26  1  0  0  0  0
 10 27  1  0  0  0  0
 12 13  1  0  0  0  0
 13 14  1  0  0  0  0
 13 15  1  0  0  0  0
 13 16  2  0  0  0  0
 14 28  1  0  0  0  0
 15 29  1  0  0  0  0
M  END
> <OPENEYE_ISO_SMILES>
C([C@@H]1[C@H]([C@@H]([C@H]([C@H](O1)O)O)O)O)OP(=O)(O)O

> <OPENEYE_INCHI>
InChI=1S/C6H13O9P/c7-3-2(1-14-16(11,12)13)15-6(10)5(9)4(3)8/h2-10H,1H2,(H2,11,12,13)/t2-,3-,4+,5-,6+/m1/s1

> <OPENEYE_INCHIKEY>
NBSCHQHZLSJFNQ-DVKNGEFBSA-N

> <FORMULA>
C6H13O9P

$$$$
