QAX
  -OEChem-10062314233D

 46 48  0     0  0  0  0  0  0999 V2000
  -11.0020    4.8580   15.5620 C   0  0  0  0  0  0  0  0  0  0  0  0
  -12.7740    3.5370   13.8550 C   0  0  0  0  0  0  0  0  0  0  0  0
   -5.6090    5.3770   15.7900 C   0  0  0  0  0  0  0  0  0  0  0  0
   -4.2480    8.8120   15.7490 C   0  0  0  0  0  0  0  0  0  0  0  0
   -5.1610    7.7770   15.6640 C   0  0  0  0  0  0  0  0  0  0  0  0
   -9.2390    8.3580   14.9150 C   0  0  0  0  0  0  0  0  0  0  0  0
   -7.3810    6.9080   15.3110 C   0  0  0  0  0  0  0  0  0  0  0  0
   -6.9390    5.6130   15.5090 C   0  0  0  0  0  0  0  0  0  0  0  0
   -7.4290    3.2240   15.5080 C   0  0  0  0  0  0  0  0  0  0  0  0
   -8.6770    2.3100   15.3420 C   0  0  0  0  0  0  0  0  0  0  0  0
   -9.9560    2.9680   16.0470 C   0  0  0  0  0  0  0  0  0  0  0  0
  -11.8410    5.7070   14.5970 C   0  0  0  0  0  0  0  0  0  0  0  0
  -13.1140    4.9890   14.1880 C   0  0  0  0  0  0  0  0  0  0  0  0
  -11.8410    2.9370   14.9320 C   0  0  0  0  0  0  0  0  0  0  0  0
   -4.7290    6.4760   15.8670 C   0  0  0  0  0  0  0  0  0  0  0  0
   -2.5690    7.2680   16.2310 C   0  0  0  0  0  0  0  0  0  0  0  0
   -6.5110    7.9930   15.3840 C   0  0  0  0  0  0  0  0  0  0  0  0
  -10.7460    3.6220   15.1430 N   0  0  0  0  0  0  0  0  0  0  0  0
   -3.4410    6.2470   16.1480 N   0  0  0  0  0  0  0  0  0  0  0  0
   -2.9830    8.5460   16.0400 N   0  0  0  0  0  0  0  0  0  0  0  0
   -8.7440    7.0510   15.0190 O   0  0  0  0  0  0  0  0  0  0  0  0
   -7.8850    4.5660   15.3960 O   0  0  0  0  0  0  0  0  0  0  0  0
   -4.5670   10.1130   15.5500 O   0  0  0  0  0  0  0  0  0  0  0  0
  -10.0420    5.3700   15.7210 H   0  0  0  0  0  0  0  0  0  0  0  0
  -11.5440    4.7900   16.5170 H   0  0  0  0  0  0  0  0  0  0  0  0
  -13.7020    2.9490   13.8120 H   0  0  0  0  0  0  0  0  0  0  0  0
  -12.2700    3.4980   12.8780 H   0  0  0  0  0  0  0  0  0  0  0  0
   -5.2490    4.3710   15.9480 H   0  0  0  0  0  0  0  0  0  0  0  0
  -10.3140    8.3260   14.6840 H   0  0  0  0  0  0  0  0  0  0  0  0
   -9.0840    8.8860   15.8680 H   0  0  0  0  0  0  0  0  0  0  0  0
   -8.7070    8.8880   14.1110 H   0  0  0  0  0  0  0  0  0  0  0  0
   -6.9690    3.0610   16.4940 H   0  0  0  0  0  0  0  0  0  0  0  0
   -6.6930    3.0070   14.7200 H   0  0  0  0  0  0  0  0  0  0  0  0
   -8.8850    2.1740   14.2710 H   0  0  0  0  0  0  0  0  0  0  0  0
   -8.4730    1.3320   15.8030 H   0  0  0  0  0  0  0  0  0  0  0  0
   -9.6150    3.6850   16.8080 H   0  0  0  0  0  0  0  0  0  0  0  0
  -10.5460    2.1750   16.5290 H   0  0  0  0  0  0  0  0  0  0  0  0
  -11.2450    5.9190   13.6970 H   0  0  0  0  0  0  0  0  0  0  0  0
  -12.1070    6.6530   15.0920 H   0  0  0  0  0  0  0  0  0  0  0  0
  -13.5480    5.4790   13.3040 H   0  0  0  0  0  0  0  0  0  0  0  0
  -13.8380    5.0190   15.0160 H   0  0  0  0  0  0  0  0  0  0  0  0
  -12.3990    2.8810   15.8780 H   0  0  0  0  0  0  0  0  0  0  0  0
  -11.5560    1.9230   14.6140 H   0  0  0  0  0  0  0  0  0  0  0  0
   -1.5310    7.0690   16.4520 H   0  0  0  0  0  0  0  0  0  0  0  0
   -6.8790    8.9960   15.2250 H   0  0  0  0  0  0  0  0  0  0  0  0
   -3.7910   10.6500   15.6570 H   0  0  0  0  0  0  0  0  0  0  0  0
  2 13  1  0  0  0  0
  2 14  1  0  0  0  0
 12 13  1  0  0  0  0
  1 12  1  0  0  0  0
  6 21  1  0  0  0  0
 14 18  1  0  0  0  0
  7 21  1  0  0  0  0
  1 18  1  0  0  0  0
 11 18  1  0  0  0  0
  7 17  2  0  0  0  0
  7  8  1  0  0  0  0
  9 10  1  0  0  0  0
 10 11  1  0  0  0  0
  5 17  1  0  0  0  0
  9 22  1  0  0  0  0
  8 22  1  0  0  0  0
  3  8  2  0  0  0  0
  4 23  1  0  0  0  0
  4  5  1  0  0  0  0
  5 15  2  0  0  0  0
  4 20  2  0  0  0  0
  3 15  1  0  0  0  0
 15 19  1  0  0  0  0
 16 20  1  0  0  0  0
 16 19  2  0  0  0  0
  1 24  1  0  0  0  0
  1 25  1  0  0  0  0
  2 26  1  0  0  0  0
  2 27  1  0  0  0  0
  3 28  1  0  0  0  0
  6 29  1  0  0  0  0
  6 30  1  0  0  0  0
  6 31  1  0  0  0  0
  9 32  1  0  0  0  0
  9 33  1  0  0  0  0
 10 34  1  0  0  0  0
 10 35  1  0  0  0  0
 11 36  1  0  0  0  0
 11 37  1  0  0  0  0
 12 38  1  0  0  0  0
 12 39  1  0  0  0  0
 13 40  1  0  0  0  0
 13 41  1  0  0  0  0
 14 42  1  0  0  0  0
 14 43  1  0  0  0  0
 16 44  1  0  0  0  0
 17 45  1  0  0  0  0
 23 46  1  0  0  0  0
M  END
> <OPENEYE_ISO_SMILES>
COc1cc2c(cc1OCCCN3CCCCC3)ncnc2O

> <OPENEYE_INCHI>
InChI=1S/C17H23N3O3/c1-22-15-10-13-14(18-12-19-17(13)21)11-16(15)23-9-5-8-20-6-3-2-4-7-20/h10-12H,2-9H2,1H3,(H,18,19,21)

> <OPENEYE_INCHIKEY>
DMNQXENATQIQBJ-UHFFFAOYSA-N

> <FORMULA>
C17H23N3O3

$$$$
