MGR
  -OEChem-10062314233D

 50 52  0     0  0  0  0  0  0999 V2000
  103.3370   46.6510   90.7060 C   0  0  0  0  0  0  0  0  0  0  0  0
  102.8380   48.1230   90.4260 C   0  0  0  0  0  0  0  0  0  0  0  0
  102.4310   48.5770   89.0900 C   0  0  0  0  0  0  0  0  0  0  0  0
  101.9830   49.9180   88.8590 C   0  0  0  0  0  0  0  0  0  0  0  0
  101.9100   50.9020   89.9250 C   0  0  0  0  0  0  0  0  0  0  0  0
  102.2980   50.5080   91.2640 C   0  0  0  0  0  0  0  0  0  0  0  0
  102.7460   49.1690   91.5120 C   0  0  0  0  0  0  0  0  0  0  0  0
  104.5340   46.3960   91.6060 C   0  0  0  0  0  0  0  0  0  0  0  0
  105.5330   47.5120   91.8820 C   0  0  0  0  0  0  0  0  0  0  0  0
  106.6350   47.3920   92.7310 C   0  0  0  0  0  0  0  0  0  0  0  0
  106.8950   46.1090   93.4060 C   0  0  0  0  0  0  0  0  0  0  0  0
  105.9310   44.9490   93.1560 C   0  0  0  0  0  0  0  0  0  0  0  0
  104.8140   45.1060   92.2770 C   0  0  0  0  0  0  0  0  0  0  0  0
  102.5540   45.5150   90.1230 C   0  0  0  0  0  0  0  0  0  0  0  0
  103.1850   44.3760   89.4360 C   0  0  0  0  0  0  0  0  0  0  0  0
  102.4310   43.3280   88.8800 C   0  0  0  0  0  0  0  0  0  0  0  0
  101.0300   43.3280   88.9680 C   0  0  0  0  0  0  0  0  0  0  0  0
  100.3880   44.4250   89.6400 C   0  0  0  0  0  0  0  0  0  0  0  0
  101.1120   45.4760   90.1980 C   0  0  0  0  0  0  0  0  0  0  0  0
  108.1970   44.6630   95.0080 C   0  0  0  0  0  0  0  0  0  0  0  0
  108.9390   47.1170   94.5630 C   0  0  0  0  0  0  0  0  0  0  0  0
  100.0080   42.2160   87.0020 C   0  0  0  0  0  0  0  0  0  0  0  0
   99.5550   41.3500   89.2880 C   0  0  0  0  0  0  0  0  0  0  0  0
  107.9690   45.9960   94.2770 N   0  0  0  0  0  0  0  0  0  0  0  0
  100.2590   42.3400   88.4390 N   0  3  0  0  0  0  0  0  0  0  0  0
  102.4620   47.8860   88.2300 H   0  0  0  0  0  0  0  0  0  0  0  0
  101.6860   50.2000   87.8340 H   0  0  0  0  0  0  0  0  0  0  0  0
  101.5660   51.9300   89.7210 H   0  0  0  0  0  0  0  0  0  0  0  0
  102.2520   51.2290   92.0970 H   0  0  0  0  0  0  0  0  0  0  0  0
  103.0240   48.9400   92.5540 H   0  0  0  0  0  0  0  0  0  0  0  0
  105.4490   48.5090   91.4190 H   0  0  0  0  0  0  0  0  0  0  0  0
  107.2770   48.2780   92.8630 H   0  0  0  0  0  0  0  0  0  0  0  0
  106.0460   43.9590   93.6280 H   0  0  0  0  0  0  0  0  0  0  0  0
  104.1650   44.2280   92.1150 H   0  0  0  0  0  0  0  0  0  0  0  0
  104.2800   44.3040   89.3320 H   0  0  0  0  0  0  0  0  0  0  0  0
  102.9440   42.4960   88.3680 H   0  0  0  0  0  0  0  0  0  0  0  0
   99.2890   44.4620   89.7310 H   0  0  0  0  0  0  0  0  0  0  0  0
  100.5430   46.2770   90.6990 H   0  0  0  0  0  0  0  0  0  0  0  0
  109.0600   44.5720   95.7080 H   0  0  0  0  0  0  0  0  0  0  0  0
  107.2630   44.3860   95.5510 H   0  0  0  0  0  0  0  0  0  0  0  0
  108.2590   43.8450   94.2520 H   0  0  0  0  0  0  0  0  0  0  0  0
  109.8020   47.0260   95.2630 H   0  0  0  0  0  0  0  0  0  0  0  0
  109.3450   47.4580   93.5820 H   0  0  0  0  0  0  0  0  0  0  0  0
  108.3370   47.9950   94.8940 H   0  0  0  0  0  0  0  0  0  0  0  0
   99.3760   41.4060   86.5680 H   0  0  0  0  0  0  0  0  0  0  0  0
   99.5940   43.1890   86.6480 H   0  0  0  0  0  0  0  0  0  0  0  0
  100.9980   42.1780   86.4900 H   0  0  0  0  0  0  0  0  0  0  0  0
   98.9230   40.5400   88.8540 H   0  0  0  0  0  0  0  0  0  0  0  0
  100.3130   40.8700   89.9490 H   0  0  0  0  0  0  0  0  0  0  0  0
   98.9290   41.9130   90.0180 H   0  0  0  0  0  0  0  0  0  0  0  0
  1  2  1  0  0  0  0
  1  8  1  0  0  0  0
  1 14  2  0  0  0  0
  2  3  2  0  0  0  0
  2  7  1  0  0  0  0
  3  4  1  0  0  0  0
  3 26  1  0  0  0  0
  4  5  2  0  0  0  0
  4 27  1  0  0  0  0
  5  6  1  0  0  0  0
  5 28  1  0  0  0  0
  6  7  2  0  0  0  0
  6 29  1  0  0  0  0
  7 30  1  0  0  0  0
  8  9  2  0  0  0  0
  8 13  1  0  0  0  0
  9 10  1  0  0  0  0
  9 31  1  0  0  0  0
 10 11  2  0  0  0  0
 10 32  1  0  0  0  0
 11 12  1  0  0  0  0
 11 24  1  0  0  0  0
 12 13  2  0  0  0  0
 12 33  1  0  0  0  0
 13 34  1  0  0  0  0
 14 15  1  0  0  0  0
 14 19  1  0  0  0  0
 15 16  2  0  0  0  0
 15 35  1  0  0  0  0
 16 17  1  0  0  0  0
 16 36  1  0  0  0  0
 17 18  1  0  0  0  0
 17 25  2  0  0  0  0
 18 19  2  0  0  0  0
 18 37  1  0  0  0  0
 19 38  1  0  0  0  0
 20 24  1  0  0  0  0
 20 39  1  0  0  0  0
 20 40  1  0  0  0  0
 20 41  1  0  0  0  0
 21 24  1  0  0  0  0
 21 42  1  0  0  0  0
 21 43  1  0  0  0  0
 21 44  1  0  0  0  0
 22 25  1  0  0  0  0
 22 45  1  0  0  0  0
 22 46  1  0  0  0  0
 22 47  1  0  0  0  0
 23 25  1  0  0  0  0
 23 48  1  0  0  0  0
 23 49  1  0  0  0  0
 23 50  1  0  0  0  0
M  CHG  1  25   1
M  END
> <OPENEYE_ISO_SMILES>
CN(C)c1ccc(cc1)C(=C2C=CC(=[N+](C)C)C=C2)c3ccccc3

> <OPENEYE_INCHI>
InChI=1S/C23H25N2/c1-24(2)21-14-10-19(11-15-21)23(18-8-6-5-7-9-18)20-12-16-22(17-13-20)25(3)4/h5-17H,1-4H3/q+1

> <OPENEYE_INCHIKEY>
VFCNQNZNPKRXIT-UHFFFAOYSA-N

> <FORMULA>
C23H25N2+

$$$$
