FH8
  -OEChem-10062314223D

 55 58  0     0  0  0  0  0  0999 V2000
   -7.7550   -3.5200   -9.4130 O   0  0  0  0  0  0  0  0  0  0  0  0
   -9.1020    5.0910   -6.0810 O   0  0  0  0  0  0  0  0  0  0  0  0
   -9.1140   -0.9050   -5.1390 O   0  0  0  0  0  0  0  0  0  0  0  0
   -9.6220    0.0570   -6.0760 C   0  0  0  0  0  0  0  0  0  0  0  0
  -10.5890    0.7890   -5.9080 O   0  0  0  0  0  0  0  0  0  0  0  0
   -8.8500    0.1230   -7.3910 C   0  0  0  0  0  0  0  0  0  0  0  0
   -8.6450   -1.0980   -8.1130 C   0  0  0  0  0  0  0  0  0  0  0  0
   -7.9800   -1.1250   -9.2930 C   0  0  0  0  0  0  0  0  0  0  0  0
   -7.7210   -2.3880  -10.0920 C   0  0  0  0  0  0  0  0  0  0  0  0
   -7.5010   -2.3070  -11.2980 O   0  0  0  0  0  0  0  0  0  0  0  0
   -7.4640    0.0560   -9.8090 C   0  0  0  0  0  0  0  0  0  0  0  0
   -7.6180    1.2480   -9.1590 C   0  0  0  0  0  0  0  0  0  0  0  0
   -8.3200    1.2970   -7.9350 C   0  0  0  0  0  0  0  0  0  0  0  0
   -8.5190    2.6580   -7.3250 C   0  0  0  0  0  0  0  0  0  0  0  0
   -9.3560    3.5750   -7.9370 C   0  0  0  0  0  0  0  0  0  0  0  0
   -9.9550    3.3820   -9.2220 C   0  0  0  0  0  0  0  0  0  0  0  0
  -10.7990    4.3530   -9.7830 C   0  0  0  0  0  0  0  0  0  0  0  0
  -11.1050    5.5260   -9.0620 C   0  0  0  0  0  0  0  0  0  0  0  0
  -11.9490    6.4420   -9.5800 N   0  3  0  0  0  0  0  0  0  0  0  0
  -12.3910    7.5970   -8.8370 C   0  0  0  0  0  0  0  0  0  0  0  0
  -12.5720    6.2450  -10.8880 C   0  0  0  0  0  0  0  0  0  0  0  0
  -10.5330    5.7170   -7.7880 C   0  0  0  0  0  0  0  0  0  0  0  0
   -9.6480    4.8010   -7.3080 C   0  0  0  0  0  0  0  0  0  0  0  0
   -8.2260    4.1940   -5.4610 C   0  0  0  0  0  0  0  0  0  0  0  0
   -7.7250    4.5880   -4.2450 C   0  0  0  0  0  0  0  0  0  0  0  0
   -6.8520    3.7330   -3.5580 C   0  0  0  0  0  0  0  0  0  0  0  0
   -6.2670    4.1100   -2.4350 N   0  0  0  0  0  0  0  0  0  0  0  0
   -6.5040    5.4590   -1.8780 C   0  0  0  0  0  0  0  0  0  0  0  0
   -5.2900    3.2380   -1.7160 C   0  0  0  0  0  0  0  0  0  0  0  0
   -6.5910    2.4990   -4.1230 C   0  0  0  0  0  0  0  0  0  0  0  0
   -7.1360    2.0970   -5.3230 C   0  0  0  0  0  0  0  0  0  0  0  0
   -7.9450    2.9580   -6.0570 C   0  0  0  0  0  0  0  0  0  0  0  0
   -7.5840   -4.2470  -10.0000 H   0  0  0  0  0  0  0  0  0  0  0  0
   -9.6460   -0.8930   -4.3520 H   0  0  0  0  0  0  0  0  0  0  0  0
   -9.0310   -2.0210   -7.7060 H   0  0  0  0  0  0  0  0  0  0  0  0
   -6.9280    0.0320  -10.7460 H   0  0  0  0  0  0  0  0  0  0  0  0
   -7.2030    2.1520   -9.5810 H   0  0  0  0  0  0  0  0  0  0  0  0
   -9.7540    2.4730   -9.7700 H   0  0  0  0  0  0  0  0  0  0  0  0
  -11.2150    4.2020  -10.7680 H   0  0  0  0  0  0  0  0  0  0  0  0
  -11.8570    7.6420   -7.8760 H   0  0  0  0  0  0  0  0  0  0  0  0
  -12.1800    8.5080   -9.4160 H   0  0  0  0  0  0  0  0  0  0  0  0
  -13.4730    7.5220   -8.6520 H   0  0  0  0  0  0  0  0  0  0  0  0
  -13.2190    7.1040  -11.1200 H   0  0  0  0  0  0  0  0  0  0  0  0
  -11.7900    6.1570  -11.6570 H   0  0  0  0  0  0  0  0  0  0  0  0
  -13.1750    5.3250  -10.8720 H   0  0  0  0  0  0  0  0  0  0  0  0
  -10.7950    6.5830   -7.1980 H   0  0  0  0  0  0  0  0  0  0  0  0
   -8.0000    5.5440   -3.8230 H   0  0  0  0  0  0  0  0  0  0  0  0
   -5.9310    5.5780   -0.9470 H   0  0  0  0  0  0  0  0  0  0  0  0
   -6.1820    6.2180   -2.6060 H   0  0  0  0  0  0  0  0  0  0  0  0
   -7.5760    5.5850   -1.6670 H   0  0  0  0  0  0  0  0  0  0  0  0
   -4.9340    3.7540   -0.8120 H   0  0  0  0  0  0  0  0  0  0  0  0
   -5.7800    2.2950   -1.4310 H   0  0  0  0  0  0  0  0  0  0  0  0
   -4.4360    3.0230   -2.3760 H   0  0  0  0  0  0  0  0  0  0  0  0
   -5.9320    1.8210   -3.6020 H   0  0  0  0  0  0  0  0  0  0  0  0
   -6.9330    1.1040   -5.6970 H   0  0  0  0  0  0  0  0  0  0  0  0
  9 10  2  0  0  0  0
 19 21  1  0  0  0  0
  1  9  1  0  0  0  0
  8  9  1  0  0  0  0
  8 11  2  0  0  0  0
 11 12  1  0  0  0  0
 16 17  2  0  0  0  0
 17 18  1  0  0  0  0
 18 19  2  0  0  0  0
 19 20  1  0  0  0  0
  7  8  1  0  0  0  0
 15 16  1  0  0  0  0
 12 13  2  0  0  0  0
 18 22  1  0  0  0  0
  6  7  2  0  0  0  0
 14 15  2  0  0  0  0
 15 23  1  0  0  0  0
  6 13  1  0  0  0  0
 13 14  1  0  0  0  0
 22 23  2  0  0  0  0
  4  6  1  0  0  0  0
 14 32  1  0  0  0  0
  2 23  1  0  0  0  0
  2 24  1  0  0  0  0
  4  5  2  0  0  0  0
  3  4  1  0  0  0  0
 24 32  2  0  0  0  0
 31 32  1  0  0  0  0
 24 25  1  0  0  0  0
 30 31  2  0  0  0  0
 25 26  2  0  0  0  0
 26 30  1  0  0  0  0
 26 27  1  0  0  0  0
 27 28  1  0  0  0  0
 27 29  1  0  0  0  0
  1 33  1  0  0  0  0
  3 34  1  0  0  0  0
  7 35  1  0  0  0  0
 11 36  1  0  0  0  0
 12 37  1  0  0  0  0
 16 38  1  0  0  0  0
 17 39  1  0  0  0  0
 20 40  1  0  0  0  0
 20 41  1  0  0  0  0
 20 42  1  0  0  0  0
 21 43  1  0  0  0  0
 21 44  1  0  0  0  0
 21 45  1  0  0  0  0
 22 46  1  0  0  0  0
 25 47  1  0  0  0  0
 28 48  1  0  0  0  0
 28 49  1  0  0  0  0
 28 50  1  0  0  0  0
 29 51  1  0  0  0  0
 29 52  1  0  0  0  0
 29 53  1  0  0  0  0
 30 54  1  0  0  0  0
 31 55  1  0  0  0  0
M  CHG  1  19   1
M  END
> <OPENEYE_ISO_SMILES>
CN(C)c1ccc2c(c1)oc-3cc(=[N+](C)C)ccc3c2c4ccc(cc4C(=O)O)C(=O)O

> <OPENEYE_INCHI>
InChI=1S/C25H22N2O5/c1-26(2)15-6-9-18-21(12-15)32-22-13-16(27(3)4)7-10-19(22)23(18)17-8-5-14(24(28)29)11-20(17)25(30)31/h5-13H,1-4H3,(H-,28,29,30,31)/p+1

> <OPENEYE_INCHIKEY>
YMZMTOFQCVHHFB-UHFFFAOYSA-O

> <FORMULA>
C25H23N2O5+

$$$$
