ZLD
  -OEChem-01052415173D

 44 46  0     1  0  0  0  0  0999 V2000
   65.8660  119.3650  100.3660 C   0  0  0  0  0  0  0  0  0  0  0  0
   66.5860  120.3640  101.0470 C   0  0  0  0  0  0  0  0  0  0  0  0
   62.6740  120.8240   97.0700 C   0  0  0  0  0  0  0  0  0  0  0  0
   66.5050  118.0520  100.0750 C   0  0  0  0  0  0  0  0  0  0  0  0
   67.9130  117.8380  100.5250 C   0  0  0  0  0  0  0  0  0  0  0  0
   64.4910  119.6430   99.8940 N   0  0  0  0  0  0  0  0  0  0  0  0
   63.9890  119.0310   98.6320 C   0  0  0  0  0  0  0  0  0  0  0  0
   63.4750  120.4520  100.3420 C   0  0  0  0  0  0  0  0  0  0  0  0
   62.7500  119.8540   98.2730 C   0  0  1  0  0  0  0  0  0  0  0  0
   62.4220  120.5800   99.4570 O   0  0  0  0  0  0  0  0  0  0  0  0
   63.3560  122.1090   97.3240 N   0  0  0  0  0  0  0  0  0  0  0  0
   64.6940  122.3160   97.0570 C   0  0  0  0  0  0  0  0  0  0  0  0
   65.1720  123.7120   97.3990 C   0  0  0  0  0  0  0  0  0  0  0  0
   65.4400  121.4690   96.5950 O   0  0  0  0  0  0  0  0  0  0  0  0
   63.4790  121.0230  101.4490 O   0  0  0  0  0  0  0  0  0  0  0  0
   67.9370  120.1260  101.4770 C   0  0  0  0  0  0  0  0  0  0  0  0
   68.7220  118.8510  101.2720 C   0  0  0  0  0  0  0  0  0  0  0  0
   68.4920  121.2150  102.0750 F   0  0  0  0  0  0  0  0  0  0  0  0
   70.0090  118.6700  101.7200 N   0  0  0  0  0  0  0  0  0  0  0  0
   70.3990  119.1630  103.1230 C   0  0  0  0  0  0  0  0  0  0  0  0
   71.9300  118.8320  103.4840 C   0  0  0  0  0  0  0  0  0  0  0  0
   72.4390  117.6030  103.1850 O   0  0  0  0  0  0  0  0  0  0  0  0
   72.3920  117.4750  101.7670 C   0  0  0  0  0  0  0  0  0  0  0  0
   70.7930  117.5680  101.2590 C   0  0  0  0  0  0  0  0  0  0  0  0
   66.1200  121.3170  101.2480 H   0  0  0  0  0  0  0  0  0  0  0  0
   63.1540  120.3420   96.2060 H   0  0  0  0  0  0  0  0  0  0  0  0
   61.6120  121.0430   96.8860 H   0  0  0  0  0  0  0  0  0  0  0  0
   65.9650  117.2760   99.5530 H   0  0  0  0  0  0  0  0  0  0  0  0
   68.3770  116.8900  100.2960 H   0  0  0  0  0  0  0  0  0  0  0  0
   64.7460  119.0850   97.8360 H   0  0  0  0  0  0  0  0  0  0  0  0
   63.7580  117.9620   98.7510 H   0  0  0  0  0  0  0  0  0  0  0  0
   62.0630  119.0800   97.9020 H   0  0  0  0  0  0  0  0  0  0  0  0
   62.8240  122.8640   97.7070 H   0  0  0  0  0  0  0  0  0  0  0  0
   65.2880  123.8040   98.4890 H   0  0  0  0  0  0  0  0  0  0  0  0
   66.1400  123.8980   96.9110 H   0  0  0  0  0  0  0  0  0  0  0  0
   64.4350  124.4480   97.0460 H   0  0  0  0  0  0  0  0  0  0  0  0
   70.2590  120.2530  103.1620 H   0  0  0  0  0  0  0  0  0  0  0  0
   69.7600  118.6440  103.8530 H   0  0  0  0  0  0  0  0  0  0  0  0
   72.5410  119.5610  102.9320 H   0  0  0  0  0  0  0  0  0  0  0  0
   71.9570  118.8700  104.5830 H   0  0  0  0  0  0  0  0  0  0  0  0
   72.9740  118.2860  101.3040 H   0  0  0  0  0  0  0  0  0  0  0  0
   72.8200  116.5070  101.4680 H   0  0  0  0  0  0  0  0  0  0  0  0
   70.2940  116.6540  101.6130 H   0  0  0  0  0  0  0  0  0  0  0  0
   70.8510  117.7010  100.1690 H   0  0  0  0  0  0  0  0  0  0  0  0
  1  2  2  0  0  0  0
  1  4  1  0  0  0  0
  1  6  1  0  0  0  0
  2 16  1  0  0  0  0
  3  9  1  0  0  0  0
  3 11  1  0  0  0  0
  4  5  2  0  0  0  0
  5 17  1  0  0  0  0
  6  7  1  0  0  0  0
  6  8  1  0  0  0  0
  7  9  1  0  0  0  0
  8 10  1  0  0  0  0
  8 15  2  0  0  0  0
  9 10  1  0  0  0  0
 11 12  1  0  0  0  0
 12 13  1  0  0  0  0
 12 14  2  0  0  0  0
 16 17  2  0  0  0  0
 16 18  1  0  0  0  0
 17 19  1  0  0  0  0
 19 20  1  0  0  0  0
 19 24  1  0  0  0  0
 20 21  1  0  0  0  0
 21 22  1  0  0  0  0
 22 23  1  0  0  0  0
 23 24  1  0  0  0  0
  2 25  1  0  0  0  0
  3 26  1  0  0  0  0
  3 27  1  0  0  0  0
  4 28  1  0  0  0  0
  5 29  1  0  0  0  0
  7 30  1  0  0  0  0
  7 31  1  0  0  0  0
  9 32  1  0  0  0  0
 11 33  1  0  0  0  0
 13 34  1  0  0  0  0
 13 35  1  0  0  0  0
 13 36  1  0  0  0  0
 20 37  1  0  0  0  0
 20 38  1  0  0  0  0
 21 39  1  0  0  0  0
 21 40  1  0  0  0  0
 23 41  1  0  0  0  0
 23 42  1  0  0  0  0
 24 43  1  0  0  0  0
 24 44  1  0  0  0  0
M  END
> <OPENEYE_ISO_SMILES>
CC(=O)NC[C@H]1CN(C(=O)O1)c2ccc(c(c2)F)N3CCOCC3

> <OPENEYE_INCHI>
InChI=1S/C16H20FN3O4/c1-11(21)18-9-13-10-20(16(22)24-13)12-2-3-15(14(17)8-12)19-4-6-23-7-5-19/h2-3,8,13H,4-7,9-10H2,1H3,(H,18,21)/t13-/m0/s1

> <OPENEYE_INCHIKEY>
TYZROVQLWOKYKF-ZDUSSCGKSA-N

> <FORMULA>
C16H20FN3O4

$$$$
