PRF
  -OEChem-10062314233D

 22 23  0     0  0  0  0  0  0999 V2000
   17.0380   17.3220   23.8250 N   0  0  0  0  0  0  0  0  0  0  0  0
   15.7050   16.9730   23.6510 C   0  0  0  0  0  0  0  0  0  0  0  0
   15.2220   16.7830   22.4590 N   0  0  0  0  0  0  0  0  0  0  0  0
   16.0680   16.9400   21.2730 C   0  0  0  0  0  0  0  0  0  0  0  0
   17.3520   17.2830   21.4000 C   0  0  0  0  0  0  0  0  0  0  0  0
   17.8970   17.4890   22.7650 C   0  0  0  0  0  0  0  0  0  0  0  0
   19.0640   17.7960   22.8870 O   0  0  0  0  0  0  0  0  0  0  0  0
   17.8290   17.3330   20.0090 C   0  0  0  0  0  0  0  0  0  0  0  0
   19.2020   17.6620   19.5130 C   0  0  0  0  0  0  0  0  0  0  0  0
   19.4970   17.7200   18.0570 N   0  0  0  0  0  0  0  0  0  0  0  0
   16.7880   17.0240   19.2530 C   0  0  0  0  0  0  0  0  0  0  0  0
   15.7700   16.7980   20.0150 N   0  0  0  0  0  0  0  0  0  0  0  0
   14.9720   16.8460   24.7060 N   0  0  0  0  0  0  0  0  0  0  0  0
   17.4000   17.4610   24.7680 H   0  0  0  0  0  0  0  0  0  0  0  0
   19.5110   18.6320   19.9670 H   0  0  0  0  0  0  0  0  0  0  0  0
   19.9190   16.9500   19.9830 H   0  0  0  0  0  0  0  0  0  0  0  0
   20.4320   17.9440   17.7180 H   0  0  0  0  0  0  0  0  0  0  0  0
   18.8400   18.3710   17.6260 H   0  0  0  0  0  0  0  0  0  0  0  0
   16.7710   16.9630   18.1510 H   0  0  0  0  0  0  0  0  0  0  0  0
   14.8460   16.5390   19.6670 H   0  0  0  0  0  0  0  0  0  0  0  0
   13.9930   16.5890   24.5780 H   0  0  0  0  0  0  0  0  0  0  0  0
   15.0240   17.7030   25.2560 H   0  0  0  0  0  0  0  0  0  0  0  0
  1  2  1  0  0  0  0
  1  6  1  0  0  0  0
  1 14  1  0  0  0  0
  2  3  2  0  0  0  0
  2 13  1  0  0  0  0
  3  4  1  0  0  0  0
  4  5  2  0  0  0  0
  4 12  1  0  0  0  0
  5  6  1  0  0  0  0
  5  8  1  0  0  0  0
  6  7  2  0  0  0  0
  8  9  1  0  0  0  0
  8 11  2  0  0  0  0
  9 10  1  0  0  0  0
  9 15  1  0  0  0  0
  9 16  1  0  0  0  0
 10 17  1  0  0  0  0
 10 18  1  0  0  0  0
 11 12  1  0  0  0  0
 11 19  1  0  0  0  0
 12 20  1  0  0  0  0
 13 21  1  0  0  0  0
 13 22  1  0  0  0  0
M  END
> <OPENEYE_ISO_SMILES>
c1c(c2c([nH]1)nc([nH]c2=O)N)CN

> <OPENEYE_INCHI>
InChI=1S/C7H9N5O/c8-1-3-2-10-5-4(3)6(13)12-7(9)11-5/h2H,1,8H2,(H4,9,10,11,12,13)

> <OPENEYE_INCHIKEY>
MEYMBLGOKYDGLZ-UHFFFAOYSA-N

> <FORMULA>
C7H9N5O

$$$$
