ISH
  -OEChem-10062314223D

 50 52  0     1  0  0  0  0  0999 V2000
    9.1620   -5.9290    3.3340 C   0  0  0  0  0  0  0  0  0  0  0  0
    8.1390   -6.5480    2.6120 C   0  0  0  0  0  0  0  0  0  0  0  0
    6.8190   -6.1660    2.8560 C   0  0  0  0  0  0  0  0  0  0  0  0
    6.4950   -5.2080    3.7880 C   0  0  0  0  0  0  0  0  0  0  0  0
    7.5100   -4.6100    4.5410 C   0  0  0  0  0  0  0  0  0  0  0  0
    8.8190   -4.9690    4.2780 C   0  0  0  0  0  0  0  0  0  0  0  0
    5.7320   -6.6890    2.2930 N   0  0  0  0  0  0  0  0  0  0  0  0
    4.7230   -6.0350    2.8950 C   0  0  0  0  0  0  0  0  0  0  0  0
    5.1510   -5.0890    3.8220 N   0  0  0  0  0  0  0  0  0  0  0  0
    7.4860   -3.7090    5.7520 C   0  0  0  0  0  0  0  0  0  0  0  0
    8.9800   -3.7020    6.1850 C   0  0  1  0  0  0  0  0  0  0  0  0
    9.7030   -4.3500    5.1060 O   0  0  0  0  0  0  0  0  0  0  0  0
    4.3040   -4.1760    4.6100 C   0  0  0  0  0  0  0  0  0  0  0  0
    9.6600   -2.3610    6.4980 C   0  0  0  0  0  0  0  0  0  0  0  0
    3.7800   -2.9550    3.8120 C   0  0  0  0  0  0  0  0  0  0  0  0
    0.6740   -0.7870    4.4660 C   0  0  0  0  0  0  0  0  0  0  0  0
    2.8140   -0.0030    3.5610 C   0  0  0  0  0  0  0  0  0  0  0  0
    2.6330   -2.2660    4.5900 C   0  0  0  0  0  0  0  0  0  0  0  0
   12.0800   -2.7720    6.0800 C   0  0  0  0  0  0  0  0  0  0  0  0
   11.3550   -1.4190    7.9740 C   0  0  0  0  0  0  0  0  0  0  0  0
    3.3810   -6.4020    2.4910 N   0  0  0  0  0  0  0  0  0  0  0  0
    1.9320   -1.2150    3.7520 N   0  0  0  0  0  0  0  0  0  0  0  0
   11.0230   -2.6260    7.1350 N   0  0  0  0  0  0  0  0  0  0  0  0
   10.1960   -6.1910    3.1620 H   0  0  0  0  0  0  0  0  0  0  0  0
    8.3650   -7.3080    1.8790 H   0  0  0  0  0  0  0  0  0  0  0  0
    6.8300   -4.1000    6.5430 H   0  0  0  0  0  0  0  0  0  0  0  0
    9.0030   -4.2060    7.1620 H   0  0  0  0  0  0  0  0  0  0  0  0
    3.4340   -4.7450    4.9700 H   0  0  0  0  0  0  0  0  0  0  0  0
    9.7930   -1.7890    5.5680 H   0  0  0  0  0  0  0  0  0  0  0  0
    3.4040   -3.2930    2.8350 H   0  0  0  0  0  0  0  0  0  0  0  0
    0.1480   -0.0330    3.8620 H   0  0  0  0  0  0  0  0  0  0  0  0
    3.0670    0.4240    4.5420 H   0  0  0  0  0  0  0  0  0  0  0  0
    1.8980   -3.0300    4.8830 H   0  0  0  0  0  0  0  0  0  0  0  0
   12.1370   -1.8470    5.4880 H   0  0  0  0  0  0  0  0  0  0  0  0
   12.3330   -1.5640    8.4550 H   0  0  0  0  0  0  0  0  0  0  0  0
    2.8750   -6.7400    3.2840 H   0  0  0  0  0  0  0  0  0  0  0  0
    7.1230   -2.7000    5.5070 H   0  0  0  0  0  0  0  0  0  0  0  0
    4.9030   -3.8000    5.4520 H   0  0  0  0  0  0  0  0  0  0  0  0
    9.0340   -1.7840    7.1940 H   0  0  0  0  0  0  0  0  0  0  0  0
    4.6010   -2.2380    3.6640 H   0  0  0  0  0  0  0  0  0  0  0  0
    0.0200   -1.6590    4.6130 H   0  0  0  0  0  0  0  0  0  0  0  0
    0.9360   -0.3570    5.4440 H   0  0  0  0  0  0  0  0  0  0  0  0
    3.7370   -0.2990    3.0410 H   0  0  0  0  0  0  0  0  0  0  0  0
    2.2800    0.7480    2.9610 H   0  0  0  0  0  0  0  0  0  0  0  0
    3.0550   -1.7810    5.4820 H   0  0  0  0  0  0  0  0  0  0  0  0
   13.0520   -2.9620    6.5580 H   0  0  0  0  0  0  0  0  0  0  0  0
   11.8250   -3.6140    5.4200 H   0  0  0  0  0  0  0  0  0  0  0  0
   11.3910   -0.5260    7.3330 H   0  0  0  0  0  0  0  0  0  0  0  0
   10.5830   -1.2860    8.7460 H   0  0  0  0  0  0  0  0  0  0  0  0
    3.4260   -7.1180    1.7950 H   0  0  0  0  0  0  0  0  0  0  0  0
  1  6  1  0  0  0  0
  1  2  2  0  0  0  0
  2  3  1  0  0  0  0
  3  4  2  0  0  0  0
  4  9  1  0  0  0  0
  4  5  1  0  0  0  0
  5 10  1  0  0  0  0
  5  6  2  0  0  0  0
  6 12  1  0  0  0  0
  3  7  1  0  0  0  0
  7  8  2  0  0  0  0
  8  9  1  0  0  0  0
  9 13  1  0  0  0  0
 10 11  1  0  0  0  0
 10 37  1  0  0  0  0
 11 14  1  0  0  0  0
 11 27  1  0  0  0  0
 11 12  1  0  0  0  0
 13 28  1  0  0  0  0
 13 38  1  0  0  0  0
 14 23  1  0  0  0  0
 14 29  1  0  0  0  0
 14 39  1  0  0  0  0
 13 15  1  0  0  0  0
 15 18  1  0  0  0  0
 15 40  1  0  0  0  0
 16 41  1  0  0  0  0
 16 42  1  0  0  0  0
 17 22  1  0  0  0  0
 17 43  1  0  0  0  0
 17 44  1  0  0  0  0
 18 33  1  0  0  0  0
 18 45  1  0  0  0  0
 19 23  1  0  0  0  0
 19 46  1  0  0  0  0
 19 47  1  0  0  0  0
 20 35  1  0  0  0  0
 20 48  1  0  0  0  0
 20 49  1  0  0  0  0
  8 21  1  0  0  0  0
 21 50  1  0  0  0  0
 16 22  1  0  0  0  0
 18 22  1  0  0  0  0
 20 23  1  0  0  0  0
  1 24  1  0  0  0  0
  2 25  1  0  0  0  0
 10 26  1  0  0  0  0
 15 30  1  0  0  0  0
 16 31  1  0  0  0  0
 17 32  1  0  0  0  0
 19 34  1  0  0  0  0
 21 36  1  0  0  0  0
M  END
> <OPENEYE_ISO_SMILES>
CN(C)CCCn1c2c(ccc3c2C[C@@H](O3)CN(C)C)nc1N

> <OPENEYE_INCHI>
InChI=1S/C17H27N5O/c1-20(2)8-5-9-22-16-13-10-12(11-21(3)4)23-15(13)7-6-14(16)19-17(22)18/h6-7,12H,5,8-11H2,1-4H3,(H2,18,19)/t12-/m1/s1

> <OPENEYE_INCHIKEY>
PFHMRNGLRJXGSW-GFCCVEGCSA-N

> <FORMULA>
C17H27N5O

$$$$
