V6T
  -OEChem-10062314243D

 55 57  0     0  0  0  0  0  0999 V2000
    8.9790   -2.9130   -7.2580 C   0  0  0  0  0  0  0  0  0  0  0  0
   11.6750  -11.9400   -6.7080 C   0  0  0  0  0  0  0  0  0  0  0  0
   10.2670  -10.2580   -5.8540 C   0  0  0  0  0  0  0  0  0  0  0  0
   11.0050   -9.2810   -6.5030 C   0  0  0  0  0  0  0  0  0  0  0  0
   10.8650   -7.9480   -6.1470 C   0  0  0  0  0  0  0  0  0  0  0  0
   11.7140   -6.8970   -6.8840 C   0  0  0  0  0  0  0  0  0  0  0  0
   11.2660   -5.7140   -7.2760 C   0  0  0  0  0  0  0  0  0  0  0  0
   10.1010   -3.9240   -7.4860 C   0  0  0  0  0  0  0  0  0  0  0  0
   11.3880   -2.7920   -9.1600 C   0  0  0  0  0  0  0  0  0  0  0  0
   11.3320   -3.0070  -10.5290 C   0  0  0  0  0  0  0  0  0  0  0  0
   11.5890   -1.9790  -11.4250 C   0  0  0  0  0  0  0  0  0  0  0  0
   11.9090   -0.7140  -10.9560 C   0  0  0  0  0  0  0  0  0  0  0  0
   13.5920    0.3730  -12.2560 C   0  0  0  0  0  0  0  0  0  0  0  0
   11.3850    0.2010  -13.1010 C   0  0  0  0  0  0  0  0  0  0  0  0
   11.8360    1.6530  -11.3080 C   0  0  0  0  0  0  0  0  0  0  0  0
   11.9700   -0.4960   -9.5850 C   0  0  0  0  0  0  0  0  0  0  0  0
   11.7150   -1.5280   -8.6890 C   0  0  0  0  0  0  0  0  0  0  0  0
   11.8610   -4.9040   -8.2190 C   0  0  0  0  0  0  0  0  0  0  0  0
    9.9770   -7.5960   -5.1340 C   0  0  0  0  0  0  0  0  0  0  0  0
    9.2350   -8.5760   -4.4880 C   0  0  0  0  0  0  0  0  0  0  0  0
    8.1920   -6.8880   -3.2050 C   0  0  0  0  0  0  0  0  0  0  0  0
    9.3800   -9.9020   -4.8510 C   0  0  0  0  0  0  0  0  0  0  0  0
   10.1920   -5.0870   -6.8450 N   0  0  0  0  0  0  0  0  0  0  0  0
   11.1330   -3.8060   -8.3310 N   0  0  0  0  0  0  0  0  0  0  0  0
   12.1830    0.3740  -11.9000 N   0  3  0  0  0  0  0  0  0  0  0  0
   10.4090  -11.6010   -6.2210 O   0  0  0  0  0  0  0  0  0  0  0  0
   12.8540   -5.1510   -8.8200 O   0  0  0  0  0  0  0  0  0  0  0  0
    8.3300   -8.2540   -3.4660 O   0  0  0  0  0  0  0  0  0  0  0  0
    8.6240  -10.8740   -4.1860 O   0  0  0  0  0  0  0  0  0  0  0  0
    8.2840   -3.3010   -6.4980 H   0  0  0  0  0  0  0  0  0  0  0  0
    9.4080   -1.9610   -6.9110 H   0  0  0  0  0  0  0  0  0  0  0  0
    8.4370   -2.7480   -8.2010 H   0  0  0  0  0  0  0  0  0  0  0  0
   11.6940  -13.0080   -6.9700 H   0  0  0  0  0  0  0  0  0  0  0  0
   11.8960  -11.3390   -7.6030 H   0  0  0  0  0  0  0  0  0  0  0  0
   12.4310  -11.7390   -5.9350 H   0  0  0  0  0  0  0  0  0  0  0  0
   11.6920   -9.5590   -7.2890 H   0  0  0  0  0  0  0  0  0  0  0  0
   12.7450   -7.1410   -7.0960 H   0  0  0  0  0  0  0  0  0  0  0  0
   11.0850   -3.9890  -10.9030 H   0  0  0  0  0  0  0  0  0  0  0  0
   11.5400   -2.1640  -12.4880 H   0  0  0  0  0  0  0  0  0  0  0  0
   14.2000    0.5040  -11.3490 H   0  0  0  0  0  0  0  0  0  0  0  0
   13.8490   -0.5840  -12.7340 H   0  0  0  0  0  0  0  0  0  0  0  0
   13.7940    1.1980  -12.9550 H   0  0  0  0  0  0  0  0  0  0  0  0
   10.3170    0.2010  -12.8360 H   0  0  0  0  0  0  0  0  0  0  0  0
   11.5890    1.0260  -13.7990 H   0  0  0  0  0  0  0  0  0  0  0  0
   11.6440   -0.7560  -13.5780 H   0  0  0  0  0  0  0  0  0  0  0  0
   12.4290    1.8080  -10.3940 H   0  0  0  0  0  0  0  0  0  0  0  0
   12.0510    2.4590  -12.0250 H   0  0  0  0  0  0  0  0  0  0  0  0
   10.7650    1.6620  -11.0560 H   0  0  0  0  0  0  0  0  0  0  0  0
   12.2180    0.4860   -9.2110 H   0  0  0  0  0  0  0  0  0  0  0  0
   11.7710   -1.3460   -7.6260 H   0  0  0  0  0  0  0  0  0  0  0  0
    9.8650   -6.5600   -4.8500 H   0  0  0  0  0  0  0  0  0  0  0  0
    7.4650   -6.7410   -2.3930 H   0  0  0  0  0  0  0  0  0  0  0  0
    9.1650   -6.4720   -2.9050 H   0  0  0  0  0  0  0  0  0  0  0  0
    7.8380   -6.3760   -4.1120 H   0  0  0  0  0  0  0  0  0  0  0  0
    8.0730  -10.4560   -3.5340 H   0  0  0  0  0  0  0  0  0  0  0  0
 14 25  1  0  0  0  0
 13 25  1  0  0  0  0
 15 25  1  0  0  0  0
 12 25  1  0  0  0  0
 11 12  2  0  0  0  0
 10 11  1  0  0  0  0
 12 16  1  0  0  0  0
  9 10  2  0  0  0  0
 16 17  2  0  0  0  0
  9 17  1  0  0  0  0
  9 24  1  0  0  0  0
 18 27  2  0  0  0  0
 18 24  1  0  0  0  0
  8 24  1  0  0  0  0
  7 18  1  0  0  0  0
  1  8  1  0  0  0  0
  8 23  2  0  0  0  0
  6  7  2  0  0  0  0
  7 23  1  0  0  0  0
  5  6  1  0  0  0  0
  2 26  1  0  0  0  0
  4  5  2  0  0  0  0
  3  4  1  0  0  0  0
  3 26  1  0  0  0  0
  5 19  1  0  0  0  0
  3 22  2  0  0  0  0
 19 20  2  0  0  0  0
 20 22  1  0  0  0  0
 22 29  1  0  0  0  0
 20 28  1  0  0  0  0
 21 28  1  0  0  0  0
  1 30  1  0  0  0  0
  1 31  1  0  0  0  0
  1 32  1  0  0  0  0
  2 33  1  0  0  0  0
  2 34  1  0  0  0  0
  2 35  1  0  0  0  0
  4 36  1  0  0  0  0
  6 37  1  0  0  0  0
 10 38  1  0  0  0  0
 11 39  1  0  0  0  0
 13 40  1  0  0  0  0
 13 41  1  0  0  0  0
 13 42  1  0  0  0  0
 14 43  1  0  0  0  0
 14 44  1  0  0  0  0
 14 45  1  0  0  0  0
 15 46  1  0  0  0  0
 15 47  1  0  0  0  0
 15 48  1  0  0  0  0
 16 49  1  0  0  0  0
 17 50  1  0  0  0  0
 19 51  1  0  0  0  0
 21 52  1  0  0  0  0
 21 53  1  0  0  0  0
 21 54  1  0  0  0  0
 29 55  1  0  0  0  0
M  CHG  1  25   1
M  END
> <OPENEYE_ISO_SMILES>
CC1=N/C(=C\c2cc(c(c(c2)OC)O)OC)/C(=O)N1c3ccc(cc3)[N+](C)(C)C

> <OPENEYE_INCHI>
InChI=1S/C22H25N3O4/c1-14-23-18(11-15-12-19(28-5)21(26)20(13-15)29-6)22(27)24(14)16-7-9-17(10-8-16)25(2,3)4/h7-13H,1-6H3/p+1

> <OPENEYE_INCHIKEY>
SMSBZPALSUJZFM-UHFFFAOYSA-O

> <FORMULA>
C22H26N3O4+

$$$$
