V4J
  -OEChem-01052415173D

 58 59  0     1  0  0  0  0  0999 V2000
    2.6240   13.3970    8.5290 C   0  0  0  0  0  0  0  0  0  0  0  0
   -2.1760   15.8610    8.4830 C   0  0  0  0  0  0  0  0  0  0  0  0
    6.0280   16.4030    7.4760 C   0  0  2  0  0  0  0  0  0  0  0  0
    6.5950   14.9160    5.7910 C   0  0  0  0  0  0  0  0  0  0  0  0
   -2.8800   12.4800    8.2840 C   0  0  0  0  0  0  0  0  0  0  0  0
    5.2090   15.0870    7.6290 C   0  0  1  0  0  0  0  0  0  0  0  0
    3.7360   16.6540    6.2960 S   0  0  0  0  0  0  0  0  0  0  0  0
   -2.0060   13.5260    8.9760 C   0  0  0  0  0  0  0  0  0  0  0  0
   -3.6640   15.8060    8.1610 C   0  0  0  0  0  0  0  0  0  0  0  0
   -0.6650   10.6980    9.7490 O   0  0  0  0  0  0  0  0  0  0  0  0
    0.3790   10.5610    8.9040 C   0  0  0  0  0  0  0  0  0  0  0  0
   -1.3240    9.4450    9.9440 C   0  0  0  0  0  0  0  0  0  0  0  0
    0.7530   11.8130    8.1200 C   0  0  0  0  0  0  0  0  0  0  0  0
   -2.7940    9.7050   10.2920 C   0  0  0  0  0  0  0  0  0  0  0  0
    2.2590   11.9720    8.1410 C   0  0  0  0  0  0  0  0  0  0  0  0
   -3.6440   11.7060    9.3570 C   0  0  0  0  0  0  0  0  0  0  0  0
   -1.4980   14.6040    8.0100 C   0  0  2  0  0  0  0  0  0  0  0  0
    2.8880   14.2010    7.2680 C   0  0  0  0  0  0  0  0  0  0  0  0
    3.7250   15.4410    7.5860 C   0  0  1  0  0  0  0  0  0  0  0  0
    5.0500   17.5370    7.0860 C   0  0  0  0  0  0  0  0  0  0  0  0
    6.8890   16.1110    6.3040 N   0  0  0  0  0  0  0  0  0  0  0  0
    5.6410   14.2720    6.4680 N   0  0  0  0  0  0  0  0  0  0  0  0
    1.0090    9.5200    8.7710 O   0  0  0  0  0  0  0  0  0  0  0  0
    7.1520   14.4560    4.7920 O   0  0  0  0  0  0  0  0  0  0  0  0
   -0.1000   14.7820    8.1880 O   0  0  0  0  0  0  0  0  0  0  0  0
   -3.4570   10.3000    9.1640 O   0  0  0  0  0  0  0  0  0  0  0  0
    3.5270   13.3880    9.1570 H   0  0  0  0  0  0  0  0  0  0  0  0
    1.7930   13.8510    9.0890 H   0  0  0  0  0  0  0  0  0  0  0  0
   -2.0420   15.9590    9.5700 H   0  0  0  0  0  0  0  0  0  0  0  0
   -1.7260   16.7290    7.9780 H   0  0  0  0  0  0  0  0  0  0  0  0
    6.6000   16.6420    8.3850 H   0  0  0  0  0  0  0  0  0  0  0  0
   -3.5910   12.9780    7.6080 H   0  0  0  0  0  0  0  0  0  0  0  0
   -2.2470   11.7900    7.7070 H   0  0  0  0  0  0  0  0  0  0  0  0
    5.4610   14.5920    8.5780 H   0  0  0  0  0  0  0  0  0  0  0  0
   -1.1390   13.0190    9.4250 H   0  0  0  0  0  0  0  0  0  0  0  0
   -2.5970   14.0120    9.7660 H   0  0  0  0  0  0  0  0  0  0  0  0
   -4.1500   16.7290    8.5110 H   0  0  0  0  0  0  0  0  0  0  0  0
   -3.8000   15.7090    7.0740 H   0  0  0  0  0  0  0  0  0  0  0  0
   -4.1160   14.9400    8.6660 H   0  0  0  0  0  0  0  0  0  0  0  0
   -1.2630    8.8480    9.0220 H   0  0  0  0  0  0  0  0  0  0  0  0
   -0.8410    8.8980   10.7670 H   0  0  0  0  0  0  0  0  0  0  0  0
    0.2820   12.6930    8.5830 H   0  0  0  0  0  0  0  0  0  0  0  0
    0.4060   11.7150    7.0810 H   0  0  0  0  0  0  0  0  0  0  0  0
   -2.8520   10.3880   11.1530 H   0  0  0  0  0  0  0  0  0  0  0  0
   -3.2840    8.7530   10.5450 H   0  0  0  0  0  0  0  0  0  0  0  0
    2.6890   11.2730    8.8730 H   0  0  0  0  0  0  0  0  0  0  0  0
    2.6630   11.7510    7.1420 H   0  0  0  0  0  0  0  0  0  0  0  0
   -3.2690   11.9920   10.3510 H   0  0  0  0  0  0  0  0  0  0  0  0
   -4.7150   11.9450    9.2870 H   0  0  0  0  0  0  0  0  0  0  0  0
   -1.7700   14.3650    6.9710 H   0  0  0  0  0  0  0  0  0  0  0  0
    1.9280   14.5150    6.8320 H   0  0  0  0  0  0  0  0  0  0  0  0
    3.4310   13.5730    6.5460 H   0  0  0  0  0  0  0  0  0  0  0  0
    3.3960   15.9240    8.5180 H   0  0  0  0  0  0  0  0  0  0  0  0
    5.5230   18.2490    6.3940 H   0  0  0  0  0  0  0  0  0  0  0  0
    4.6890   18.0740    7.9750 H   0  0  0  0  0  0  0  0  0  0  0  0
    7.5930   16.7260    5.9480 H   0  0  0  0  0  0  0  0  0  0  0  0
    5.2730   13.3740    6.2280 H   0  0  0  0  0  0  0  0  0  0  0  0
    0.3580   14.0020    7.8970 H   0  0  0  0  0  0  0  0  0  0  0  0
  4 24  2  0  0  0  0
  4 21  1  0  0  0  0
  4 22  1  0  0  0  0
  7 20  1  0  0  0  0
  7 19  1  0  0  0  0
  3 21  1  0  0  0  0
  6 22  1  0  0  0  0
  3 20  1  0  0  0  0
 18 19  1  0  0  0  0
  1 18  1  0  0  0  0
  3  6  1  0  0  0  0
  6 19  1  0  0  0  0
 17 25  1  0  0  0  0
  2 17  1  0  0  0  0
  8 17  1  0  0  0  0
 13 15  1  0  0  0  0
 11 13  1  0  0  0  0
  1 15  1  0  0  0  0
  2  9  1  0  0  0  0
  5  8  1  0  0  0  0
  5 16  1  0  0  0  0
 11 23  2  0  0  0  0
 10 11  1  0  0  0  0
 16 26  1  0  0  0  0
 14 26  1  0  0  0  0
 10 12  1  0  0  0  0
 12 14  1  0  0  0  0
  1 27  1  0  0  0  0
  1 28  1  0  0  0  0
  2 29  1  0  0  0  0
  2 30  1  0  0  0  0
  3 31  1  0  0  0  0
  5 32  1  0  0  0  0
  5 33  1  0  0  0  0
  6 34  1  0  0  0  0
  8 35  1  0  0  0  0
  8 36  1  0  0  0  0
  9 37  1  0  0  0  0
  9 38  1  0  0  0  0
  9 39  1  0  0  0  0
 12 40  1  0  0  0  0
 12 41  1  0  0  0  0
 13 42  1  0  0  0  0
 13 43  1  0  0  0  0
 14 44  1  0  0  0  0
 14 45  1  0  0  0  0
 15 46  1  0  0  0  0
 15 47  1  0  0  0  0
 16 48  1  0  0  0  0
 16 49  1  0  0  0  0
 17 50  1  0  0  0  0
 18 51  1  0  0  0  0
 18 52  1  0  0  0  0
 19 53  1  0  0  0  0
 20 54  1  0  0  0  0
 20 55  1  0  0  0  0
 21 56  1  0  0  0  0
 22 57  1  0  0  0  0
 25 58  1  0  0  0  0
M  END
> <OPENEYE_ISO_SMILES>
CC[C@H](CCCOCCOC(=O)CCCC[C@H]1[C@@H]2[C@H](CS1)NC(=O)N2)O

> <OPENEYE_INCHI>
InChI=1S/C18H32N2O5S/c1-2-13(21)6-5-9-24-10-11-25-16(22)8-4-3-7-15-17-14(12-26-15)19-18(23)20-17/h13-15,17,21H,2-12H2,1H3,(H2,19,20,23)/t13-,14+,15+,17+/m1/s1

> <OPENEYE_INCHIKEY>
XPLYDBRQTYFSEO-AESZEHBQSA-N

> <FORMULA>
C18H32N2O5S

$$$$
