PRP
  -OEChem-01052415163D

 35 35  0     1  0  0  0  0  0999 V2000
   41.0160   41.8040   51.8700 C   0  0  1  0  0  0  0  0  0  0  0  0
   39.6750   42.4930   51.9350 C   0  0  1  0  0  0  0  0  0  0  0  0
   39.9720   43.6090   52.8940 C   0  0  1  0  0  0  0  0  0  0  0  0
   40.9290   42.9760   53.8390 C   0  0  1  0  0  0  0  0  0  0  0  0
   40.0850   42.5090   55.0090 C   0  0  0  0  0  0  0  0  0  0  0  0
   41.9830   42.4850   51.0080 O   0  0  0  0  0  0  0  0  0  0  0  0
   39.2960   43.0830   50.6800 O   0  0  0  0  0  0  0  0  0  0  0  0
   40.6660   44.7090   52.3330 O   0  0  0  0  0  0  0  0  0  0  0  0
   41.5230   41.8520   53.1480 O   0  0  0  0  0  0  0  0  0  0  0  0
   40.8480   41.7080   55.8770 O   0  0  0  0  0  0  0  0  0  0  0  0
   41.3680   42.2020   57.3220 P   0  0  0  0  0  0  0  0  0  0  0  0
   40.2510   42.9000   57.9900 O   0  0  0  0  0  0  0  0  0  0  0  0
   42.5480   43.0950   57.1490 O   0  0  0  0  0  0  0  0  0  0  0  0
   41.7060   40.8440   57.8530 O   0  0  0  0  0  0  0  0  0  0  0  0
   43.2320   41.8130   50.1850 P   0  0  1  0  0  0  0  0  0  0  0  0
   44.3850   42.0070   51.1330 O   0  0  0  0  0  0  0  0  0  0  0  0
   42.8940   40.3980   49.9280 O   0  0  0  0  0  0  0  0  0  0  0  0
   43.2930   42.6780   48.9410 O   0  0  0  0  0  0  0  0  0  0  0  0
   42.3150   42.7790   47.7810 P   0  0  0  0  0  0  0  0  0  0  0  0
   41.6940   41.5080   47.4990 O   0  0  0  0  0  0  0  0  0  0  0  0
   43.0080   43.2400   46.5910 O   0  0  0  0  0  0  0  0  0  0  0  0
   41.2570   43.7860   48.0120 O   0  0  0  0  0  0  0  0  0  0  0  0
   40.8650   40.7780   51.4590 H   0  0  0  0  0  0  0  0  0  0  0  0
   38.8510   41.7940   52.2120 H   0  0  0  0  0  0  0  0  0  0  0  0
   39.0150   44.0100   53.3020 H   0  0  0  0  0  0  0  0  0  0  0  0
   41.7410   43.6530   54.1900 H   0  0  0  0  0  0  0  0  0  0  0  0
   39.6080   43.3630   55.5440 H   0  0  0  0  0  0  0  0  0  0  0  0
   39.1580   41.9880   54.6700 H   0  0  0  0  0  0  0  0  0  0  0  0
   38.4510   43.5160   50.7200 H   0  0  0  0  0  0  0  0  0  0  0  0
   40.8540   45.4150   52.9390 H   0  0  0  0  0  0  0  0  0  0  0  0
   42.8540   43.3850   57.9990 H   0  0  0  0  0  0  0  0  0  0  0  0
   42.0120   41.1340   58.7030 H   0  0  0  0  0  0  0  0  0  0  0  0
   43.6170   40.0080   49.4510 H   0  0  0  0  0  0  0  0  0  0  0  0
   42.3970   43.3030   45.8660 H   0  0  0  0  0  0  0  0  0  0  0  0
   40.6460   43.8490   47.2870 H   0  0  0  0  0  0  0  0  0  0  0  0
  1  2  1  0  0  0  0
  1  6  1  0  0  0  0
  1  9  1  0  0  0  0
  1 23  1  0  0  0  0
  2  3  1  0  0  0  0
  2  7  1  0  0  0  0
  2 24  1  0  0  0  0
  3  4  1  0  0  0  0
  3  8  1  0  0  0  0
  3 25  1  0  0  0  0
  4  5  1  0  0  0  0
  4  9  1  0  0  0  0
  4 26  1  0  0  0  0
  5 10  1  0  0  0  0
  5 27  1  0  0  0  0
  5 28  1  0  0  0  0
  6 15  1  0  0  0  0
  7 29  1  0  0  0  0
  8 30  1  0  0  0  0
 10 11  1  0  0  0  0
 11 12  2  0  0  0  0
 11 13  1  0  0  0  0
 11 14  1  0  0  0  0
 13 31  1  0  0  0  0
 14 32  1  0  0  0  0
 15 16  2  0  0  0  0
 15 17  1  0  0  0  0
 15 18  1  0  0  0  0
 17 33  1  0  0  0  0
 18 19  1  0  0  0  0
 19 20  2  0  0  0  0
 19 21  1  0  0  0  0
 19 22  1  0  0  0  0
 21 34  1  0  0  0  0
 22 35  1  0  0  0  0
M  END
> <OPENEYE_ISO_SMILES>
C([C@@H]1[C@H]([C@H]([C@H](O1)O[P@@](=O)(O)OP(=O)(O)O)O)O)OP(=O)(O)O

> <OPENEYE_INCHI>
InChI=1S/C5H13O14P3/c6-3-2(1-16-20(8,9)10)17-5(4(3)7)18-22(14,15)19-21(11,12)13/h2-7H,1H2,(H,14,15)(H2,8,9,10)(H2,11,12,13)/t2-,3-,4-,5-/m1/s1

> <OPENEYE_INCHIKEY>
PQGCEDQWHSBAJP-TXICZTDVSA-N

> <FORMULA>
C5H13O14P3

$$$$
